1112

Cu 11.8317 0 0
Cu 11.8317 26.3186 0
Cu 11.8317 0 52.6374
Cu 11.8317 26.3186 52.6374
Cu 11.8317 0 26.3187
Cu 11.8317 26.3186 26.3187
Cu 11.8317 13.1593 0
Cu 11.8317 13.1593 52.6374
Cu 11.8317 13.1593 26.3187
Cu 24.991 0 0
Cu 24.991 26.3186 0
Cu 24.991 0 52.6374
Cu 24.991 26.3186 52.6374
Cu 24.991 0 26.3187
Cu 24.991 26.3186 26.3187
Cu 24.991 13.1593 0
Cu 24.991 13.1593 52.6374
Cu 24.991 13.1593 26.3187
Cu 1.32764 0 0
Cu 1.32764 26.3186 0
Cu 1.32764 0 52.6374
Cu 1.32764 26.3186 52.6374
Cu 1.32764 0 26.3187
Cu 1.32764 26.3186 26.3187
Cu 1.32764 13.1593 0
Cu 1.32764 13.1593 52.6374
Cu 1.32764 13.1593 26.3187
Cu 14.4869 0 0
Cu 14.4869 26.3186 0
Cu 14.4869 0 52.6374
Cu 14.4869 26.3186 52.6374
Cu 14.4869 0 26.3187
Cu 14.4869 26.3186 26.3187
Cu 14.4869 13.1593 0
Cu 14.4869 13.1593 52.6374
Cu 14.4869 13.1593 26.3187
C 0 0 23.7967
C 26.3186 0 23.7967
C 0 26.3186 23.7967
C 26.3186 26.3186 23.7967
C 0 0 50.1154
C 26.3186 0 50.1154
C 0 26.3186 50.1154
C 26.3186 26.3186 50.1154
C 0 13.1593 23.7967
C 26.3186 13.1593 23.7967
C 0 13.1593 50.1154
C 26.3186 13.1593 50.1154
C 13.1593 0 23.7967
C 13.1593 26.3186 23.7967
C 13.1593 0 50.1154
C 13.1593 26.3186 50.1154
C 13.1593 13.1593 23.7967
C 13.1593 13.1593 50.1154
O 1.05655 0 24.4068
O 1.05655 26.3186 24.4068
O 1.05655 0 50.7255
O 1.05655 26.3186 50.7255
O 1.05655 13.1593 24.4068
O 1.05655 13.1593 50.7255
O 14.2158 0 24.4068
O 14.2158 26.3186 24.4068
O 14.2158 0 50.7255
O 14.2158 26.3186 50.7255
O 14.2158 13.1593 24.4068
O 14.2158 13.1593 50.7255
O 12.1028 0 24.4068
O 12.1028 26.3186 24.4068
O 12.1028 0 50.7255
O 12.1028 26.3186 50.7255
O 12.1028 13.1593 24.4068
O 12.1028 13.1593 50.7255
O 25.2621 0 24.4068
O 25.2621 26.3186 24.4068
O 25.2621 0 50.7255
O 25.2621 26.3186 50.7255
O 25.2621 13.1593 24.4068
O 25.2621 13.1593 50.7255
C 0 10.6373 0
C 26.3186 10.6373 0
C 0 10.6373 52.6374
C 26.3186 10.6373 52.6374
C 0 10.6373 26.3187
C 26.3186 10.6373 26.3187
C 0 23.7966 0
C 26.3186 23.7966 0
C 0 23.7966 52.6374
C 26.3186 23.7966 52.6374
C 0 23.7966 26.3187
C 26.3186 23.7966 26.3187
C 13.1593 10.6373 0
C 13.1593 10.6373 52.6374
C 13.1593 10.6373 26.3187
C 13.1593 23.7966 0
C 13.1593 23.7966 52.6374
C 13.1593 23.7966 26.3187
O 1.05655 11.2473 0
O 1.05655 11.2473 52.6374
O 1.05655 11.2473 26.3187
O 1.05655 24.4066 0
O 1.05655 24.4066 52.6374
O 1.05655 24.4066 26.3187
O 14.2158 11.2473 0
O 14.2158 11.2473 52.6374
O 14.2158 11.2473 26.3187
O 14.2158 24.4066 0
O 14.2158 24.4066 52.6374
O 14.2158 24.4066 26.3187
O 12.1028 11.2473 0
O 12.1028 11.2473 52.6374
O 12.1028 11.2473 26.3187
O 12.1028 24.4066 0
O 12.1028 24.4066 52.6374
O 12.1028 24.4066 26.3187
O 25.2621 11.2473 0
O 25.2621 11.2473 52.6374
O 25.2621 11.2473 26.3187
O 25.2621 24.4066 0
O 25.2621 24.4066 52.6374
O 25.2621 24.4066 26.3187
C 0 0 2.52196
C 26.3186 0 2.52196
C 0 26.3186 2.52196
C 26.3186 26.3186 2.52196
C 0 0 28.8407
C 26.3186 0 28.8407
C 0 26.3186 28.8407
C 26.3186 26.3186 28.8407
C 0 13.1593 2.52196
C 26.3186 13.1593 2.52196
C 0 13.1593 28.8407
C 26.3186 13.1593 28.8407
C 13.1593 0 2.52196
C 13.1593 26.3186 2.52196
C 13.1593 0 28.8407
C 13.1593 26.3186 28.8407
C 13.1593 13.1593 2.52196
C 13.1593 13.1593 28.8407
O 1.05655 0 1.91195
O 1.05655 26.3186 1.91195
O 1.05655 0 28.2306
O 1.05655 26.3186 28.2306
O 1.05655 13.1593 1.91195
O 1.05655 13.1593 28.2306
O 14.2158 0 1.91195
O 14.2158 26.3186 1.91195
O 14.2158 0 28.2306
O 14.2158 26.3186 28.2306
O 14.2158 13.1593 1.91195
O 14.2158 13.1593 28.2306
O 12.1028 0 1.91195
O 12.1028 26.3186 1.91195
O 12.1028 0 28.2306
O 12.1028 26.3186 28.2306
O 12.1028 13.1593 1.91195
O 12.1028 13.1593 28.2306
O 25.2621 0 1.91195
O 25.2621 26.3186 1.91195
O 25.2621 0 28.2306
O 25.2621 26.3186 28.2306
O 25.2621 13.1593 1.91195
O 25.2621 13.1593 28.2306
C 0 2.52195 0
C 26.3186 2.52195 0
C 0 2.52195 52.6374
C 26.3186 2.52195 52.6374
C 0 2.52195 26.3187
C 26.3186 2.52195 26.3187
C 0 15.6813 0
C 26.3186 15.6813 0
C 0 15.6813 52.6374
C 26.3186 15.6813 52.6374
C 0 15.6813 26.3187
C 26.3186 15.6813 26.3187
C 13.1593 2.52195 0
C 13.1593 2.52195 52.6374
C 13.1593 2.52195 26.3187
C 13.1593 15.6813 0
C 13.1593 15.6813 52.6374
C 13.1593 15.6813 26.3187
O 1.05655 1.91195 0
O 1.05655 1.91195 52.6374
O 1.05655 1.91195 26.3187
O 1.05655 15.0713 0
O 1.05655 15.0713 52.6374
O 1.05655 15.0713 26.3187
O 14.2158 1.91195 0
O 14.2158 1.91195 52.6374
O 14.2158 1.91195 26.3187
O 14.2158 15.0713 0
O 14.2158 15.0713 52.6374
O 14.2158 15.0713 26.3187
O 12.1028 1.91195 0
O 12.1028 1.91195 52.6374
O 12.1028 1.91195 26.3187
O 12.1028 15.0713 0
O 12.1028 15.0713 52.6374
O 12.1028 15.0713 26.3187
O 25.2621 1.91195 0
O 25.2621 1.91195 52.6374
O 25.2621 1.91195 26.3187
O 25.2621 15.0713 0
O 25.2621 15.0713 52.6374
O 25.2621 15.0713 26.3187
Cu 0 11.8317 13.1593
Cu 26.3186 11.8317 13.1593
Cu 0 11.8317 39.478
Cu 26.3186 11.8317 39.478
Cu 0 24.991 13.1593
Cu 26.3186 24.991 13.1593
Cu 0 24.991 39.478
Cu 26.3186 24.991 39.478
Cu 13.1593 11.8317 13.1593
Cu 13.1593 11.8317 39.478
Cu 13.1593 24.991 13.1593
Cu 13.1593 24.991 39.478
Cu 0 1.32764 13.1593
Cu 26.3186 1.32764 13.1593
Cu 0 1.32764 39.478
Cu 26.3186 1.32764 39.478
Cu 0 14.4869 13.1593
Cu 26.3186 14.4869 13.1593
Cu 0 14.4869 39.478
Cu 26.3186 14.4869 39.478
Cu 13.1593 1.32764 13.1593
Cu 13.1593 1.32764 39.478
Cu 13.1593 14.4869 13.1593
Cu 13.1593 14.4869 39.478
C 0 0 10.6374
C 26.3186 0 10.6374
C 0 26.3186 10.6374
C 26.3186 26.3186 10.6374
C 0 0 36.9561
C 26.3186 0 36.9561
C 0 26.3186 36.9561
C 26.3186 26.3186 36.9561
C 0 13.1593 10.6374
C 26.3186 13.1593 10.6374
C 0 13.1593 36.9561
C 26.3186 13.1593 36.9561
C 13.1593 0 10.6374
C 13.1593 26.3186 10.6374
C 13.1593 0 36.9561
C 13.1593 26.3186 36.9561
C 13.1593 13.1593 10.6374
C 13.1593 13.1593 36.9561
O 0 1.05655 11.2474
O 26.3186 1.05655 11.2474
O 0 1.05655 37.5661
O 26.3186 1.05655 37.5661
O 0 14.2158 11.2474
O 26.3186 14.2158 11.2474
O 0 14.2158 37.5661
O 26.3186 14.2158 37.5661
O 13.1593 1.05655 11.2474
O 13.1593 1.05655 37.5661
O 13.1593 14.2158 11.2474
O 13.1593 14.2158 37.5661
O 0 12.1028 11.2474
O 26.3186 12.1028 11.2474
O 0 12.1028 37.5661
O 26.3186 12.1028 37.5661
O 0 25.2621 11.2474
O 26.3186 25.2621 11.2474
O 0 25.2621 37.5661
O 26.3186 25.2621 37.5661
O 13.1593 12.1028 11.2474
O 13.1593 12.1028 37.5661
O 13.1593 25.2621 11.2474
O 13.1593 25.2621 37.5661
C 2.52195 0 13.1593
C 2.52195 26.3186 13.1593
C 2.52195 0 39.478
C 2.52195 26.3186 39.478
C 2.52195 13.1593 13.1593
C 2.52195 13.1593 39.478
C 15.6813 0 13.1593
C 15.6813 26.3186 13.1593
C 15.6813 0 39.478
C 15.6813 26.3186 39.478
C 15.6813 13.1593 13.1593
C 15.6813 13.1593 39.478
O 1.91195 1.05655 13.1593
O 1.91195 1.05655 39.478
O 1.91195 14.2158 13.1593
O 1.91195 14.2158 39.478
O 15.0713 1.05655 13.1593
O 15.0713 1.05655 39.478
O 15.0713 14.2158 13.1593
O 15.0713 14.2158 39.478
O 1.91195 12.1028 13.1593
O 1.91195 12.1028 39.478
O 1.91195 25.2621 13.1593
O 1.91195 25.2621 39.478
O 15.0713 12.1028 13.1593
O 15.0713 12.1028 39.478
O 15.0713 25.2621 13.1593
O 15.0713 25.2621 39.478
C 0 0 15.6813
C 26.3186 0 15.6813
C 0 26.3186 15.6813
C 26.3186 26.3186 15.6813
C 0 0 42
C 26.3186 0 42
C 0 26.3186 42
C 26.3186 26.3186 42
C 0 13.1593 15.6813
C 26.3186 13.1593 15.6813
C 0 13.1593 42
C 26.3186 13.1593 42
C 13.1593 0 15.6813
C 13.1593 26.3186 15.6813
C 13.1593 0 42
C 13.1593 26.3186 42
C 13.1593 13.1593 15.6813
C 13.1593 13.1593 42
O 0 1.05655 15.0713
O 26.3186 1.05655 15.0713
O 0 1.05655 41.39
O 26.3186 1.05655 41.39
O 0 14.2158 15.0713
O 26.3186 14.2158 15.0713
O 0 14.2158 41.39
O 26.3186 14.2158 41.39
O 13.1593 1.05655 15.0713
O 13.1593 1.05655 41.39
O 13.1593 14.2158 15.0713
O 13.1593 14.2158 41.39
O 0 12.1028 15.0713
O 26.3186 12.1028 15.0713
O 0 12.1028 41.39
O 26.3186 12.1028 41.39
O 0 25.2621 15.0713
O 26.3186 25.2621 15.0713
O 0 25.2621 41.39
O 26.3186 25.2621 41.39
O 13.1593 12.1028 15.0713
O 13.1593 12.1028 41.39
O 13.1593 25.2621 15.0713
O 13.1593 25.2621 41.39
C 10.6373 0 13.1593
C 10.6373 26.3186 13.1593
C 10.6373 0 39.478
C 10.6373 26.3186 39.478
C 10.6373 13.1593 13.1593
C 10.6373 13.1593 39.478
C 23.7966 0 13.1593
C 23.7966 26.3186 13.1593
C 23.7966 0 39.478
C 23.7966 26.3186 39.478
C 23.7966 13.1593 13.1593
C 23.7966 13.1593 39.478
O 11.2473 1.05655 13.1593
O 11.2473 1.05655 39.478
O 11.2473 14.2158 13.1593
O 11.2473 14.2158 39.478
O 24.4066 1.05655 13.1593
O 24.4066 1.05655 39.478
O 24.4066 14.2158 13.1593
O 24.4066 14.2158 39.478
O 11.2473 12.1028 13.1593
O 11.2473 12.1028 39.478
O 11.2473 25.2621 13.1593
O 11.2473 25.2621 39.478
O 24.4066 12.1028 13.1593
O 24.4066 12.1028 39.478
O 24.4066 25.2621 13.1593
O 24.4066 25.2621 39.478
C 3.36953 9.93753 21.7636
C 3.36953 9.93753 48.0823
C 3.36953 23.0968 21.7636
C 3.36953 23.0968 48.0823
C 16.5288 9.93753 21.7636
C 16.5288 9.93753 48.0823
C 16.5288 23.0968 21.7636
C 16.5288 23.0968 48.0823
C 1.92303 9.52662 21.7579
C 1.92303 9.52662 48.0766
C 1.92303 22.6859 21.7579
C 1.92303 22.6859 48.0766
C 15.0823 9.52662 21.7579
C 15.0823 9.52662 48.0766
C 15.0823 22.6859 21.7579
C 15.0823 22.6859 48.0766
C 1.08321 10.5088 22.6475
C 1.08321 10.5088 48.9662
C 1.08321 23.6681 22.6475
C 1.08321 23.6681 48.9662
C 14.2425 10.5088 22.6475
C 14.2425 10.5088 48.9662
C 14.2425 23.6681 22.6475
C 14.2425 23.6681 48.9662
C 0.56431 11.5521 21.8177
C 0.56431 11.5521 48.1364
C 0.56431 24.7114 21.8177
C 0.56431 24.7114 48.1364
C 13.7236 11.5521 21.8177
C 13.7236 11.5521 48.1364
C 13.7236 24.7114 21.8177
C 13.7236 24.7114 48.1364
C 0.0844827 12.7474 22.2742
C 0.0844827 12.7474 48.5929
C 0.0844827 25.9067 22.2742
C 0.0844827 25.9067 48.5929
C 13.2438 12.7474 22.2742
C 13.2438 12.7474 48.5929
C 13.2438 25.9067 22.2742
C 13.2438 25.9067 48.5929
N 12.9748 0.541545 21.39
N 12.9748 0.541545 47.7087
N 12.9748 13.7008 21.39
N 12.9748 13.7008 47.7087
N 26.1341 0.541545 21.39
N 26.1341 0.541545 47.7087
N 26.1341 13.7008 21.39
N 26.1341 13.7008 47.7087
C 13.0579 0.358999 20.068
C 13.0579 0.358999 46.3867
C 13.0579 13.5183 20.068
C 13.0579 13.5183 46.3867
C 26.2172 0.358999 20.068
C 26.2172 0.358999 46.3867
C 26.2172 13.5183 20.068
C 26.2172 13.5183 46.3867
C 12.5759 1.40287 19.2581
C 12.5759 1.40287 45.5768
C 12.5759 14.5622 19.2581
C 12.5759 14.5622 45.5768
C 25.7352 1.40287 19.2581
C 25.7352 1.40287 45.5768
C 25.7352 14.5622 19.2581
C 25.7352 14.5622 45.5768
C 12.507 1.23613 17.8701
C 12.507 1.23613 44.1888
C 12.507 14.3954 17.8701
C 12.507 14.3954 44.1888
C 25.6663 1.23613 17.8701
C 25.6663 1.23613 44.1888
C 25.6663 14.3954 17.8701
C 25.6663 14.3954 44.1888
C 13.0478 0.097892 17.2158
C 13.0478 0.097892 43.5345
C 13.0478 13.2572 17.2158
C 13.0478 13.2572 43.5345
C 26.2071 0.097892 17.2158
C 26.2071 0.097892 43.5345
C 26.2071 13.2572 17.2158
C 26.2071 13.2572 43.5345
C 0.366934 12.2411 18.0733
C 0.366934 12.2411 44.392
C 0.366934 25.4004 18.0733
C 0.366934 25.4004 44.392
C 13.5262 12.2411 18.0733
C 13.5262 12.2411 44.392
C 13.5262 25.4004 18.0733
C 13.5262 25.4004 44.392
C 0.327706 12.3363 19.4821
C 0.327706 12.3363 45.8008
C 0.327706 25.4956 19.4821
C 0.327706 25.4956 45.8008
C 13.487 12.3363 19.4821
C 13.487 12.3363 45.8008
C 13.487 25.4956 19.4821
C 13.487 25.4956 45.8008
C 0.70297 11.3897 20.4415
C 0.70297 11.3897 46.7602
C 0.70297 24.549 20.4415
C 0.70297 24.549 46.7602
C 13.8623 11.3897 20.4415
C 13.8623 11.3897 46.7602
C 13.8623 24.549 20.4415
C 13.8623 24.549 46.7602
S 1.32413 9.74819 20.0785
S 1.32413 9.74819 46.3972
S 1.32413 22.9075 20.0785
S 1.32413 22.9075 46.3972
S 14.4834 9.74819 20.0785
S 14.4834 9.74819 46.3972
S 14.4834 22.9075 20.0785
S 14.4834 22.9075 46.3972
H 3.40651 10.9432 21.3938
H 3.40651 10.9432 47.7125
H 3.40651 24.1025 21.3938
H 3.40651 24.1025 47.7125
H 16.5658 10.9432 21.3938
H 16.5658 10.9432 47.7125
H 16.5658 24.1025 21.3938
H 16.5658 24.1025 47.7125
H 3.69054 9.97833 22.8689
H 3.69054 9.97833 49.1876
H 3.69054 23.1376 22.8689
H 3.69054 23.1376 49.1876
H 16.8498 9.97833 22.8689
H 16.8498 9.97833 49.1876
H 16.8498 23.1376 22.8689
H 16.8498 23.1376 49.1876
H 3.91373 9.24557 21.2113
H 3.91373 9.24557 47.53
H 3.91373 22.4049 21.2113
H 3.91373 22.4049 47.53
H 17.073 9.24557 21.2113
H 17.073 9.24557 47.53
H 17.073 22.4049 21.2113
H 17.073 22.4049 47.53
H 1.75331 8.49058 22.0602
H 1.75331 8.49058 48.3789
H 1.75331 21.6499 22.0602
H 1.75331 21.6499 48.3789
H 14.9126 8.49058 22.0602
H 14.9126 8.49058 48.3789
H 14.9126 21.6499 22.0602
H 14.9126 21.6499 48.3789
H 0.217563 9.89192 23.0013
H 0.217563 9.89192 49.32
H 0.217563 23.0512 23.0013
H 0.217563 23.0512 49.32
H 13.3769 9.89192 23.0013
H 13.3769 9.89192 49.32
H 13.3769 23.0512 23.0013
H 13.3769 23.0512 49.32
H 1.61257 10.8029 23.5704
H 1.61257 10.8029 49.8891
H 1.61257 23.9622 23.5704
H 1.61257 23.9622 49.8891
H 14.7719 10.8029 23.5704
H 14.7719 10.8029 49.8891
H 14.7719 23.9622 23.5704
H 14.7719 23.9622 49.8891
H 12.2774 2.3711 19.7506
H 12.2774 2.3711 46.0693
H 12.2774 15.5304 19.7506
H 12.2774 15.5304 46.0693
H 25.4367 2.3711 19.7506
H 25.4367 2.3711 46.0693
H 25.4367 15.5304 19.7506
H 25.4367 15.5304 46.0693
H 12.0311 1.88094 17.1421
H 12.0311 1.88094 43.4608
H 12.0311 15.0402 17.1421
H 12.0311 15.0402 43.4608
H 25.1904 1.88094 17.1421
H 25.1904 1.88094 43.4608
H 25.1904 15.0402 17.1421
H 25.1904 15.0402 43.4608
H 0.772951 11.3217 17.6242
H 0.772951 11.3217 43.9429
H 0.772951 24.481 17.6242
H 0.772951 24.481 43.9429
H 13.9323 11.3217 17.6242
H 13.9323 11.3217 43.9429
H 13.9323 24.481 17.6242
H 13.9323 24.481 43.9429
C 3.22177 3.36953 8.60424
C 3.22177 3.36953 34.9229
C 3.22177 16.5288 8.60424
C 3.22177 16.5288 34.9229
C 16.3811 3.36953 8.60424
C 16.3811 3.36953 34.9229
C 16.3811 16.5288 8.60424
C 16.3811 16.5288 34.9229
C 3.63268 1.92303 8.59853
C 3.63268 1.92303 34.9172
C 3.63268 15.0823 8.59853
C 3.63268 15.0823 34.9172
C 16.792 1.92303 8.59853
C 16.792 1.92303 34.9172
C 16.792 15.0823 8.59853
C 16.792 15.0823 34.9172
C 2.65053 1.08321 9.48813
C 2.65053 1.08321 35.8068
C 2.65053 14.2425 9.48813
C 2.65053 14.2425 35.8068
C 15.8098 1.08321 9.48813
C 15.8098 1.08321 35.8068
C 15.8098 14.2425 9.48813
C 15.8098 14.2425 35.8068
C 1.60721 0.56431 8.65838
C 1.60721 0.56431 34.9771
C 1.60721 13.7236 8.65838
C 1.60721 13.7236 34.9771
C 14.7665 0.56431 8.65838
C 14.7665 0.56431 34.9771
C 14.7665 13.7236 8.65838
C 14.7665 13.7236 34.9771
C 0.411873 0.0844827 9.11488
C 0.411873 0.0844827 35.4336
C 0.411873 13.2438 9.11488
C 0.411873 13.2438 35.4336
C 13.5712 0.0844827 9.11488
C 13.5712 0.0844827 35.4336
C 13.5712 13.2438 9.11488
C 13.5712 13.2438 35.4336
N 12.6178 12.9748 8.23067
N 12.6178 12.9748 34.5494
N 12.6178 26.1341 8.23067
N 12.6178 26.1341 34.5494
N 25.7771 12.9748 8.23067
N 25.7771 12.9748 34.5494
N 25.7771 26.1341 8.23067
N 25.7771 26.1341 34.5494
C 12.8003 13.0579 6.90869
C 12.8003 13.0579 33.2274
C 12.8003 26.2172 6.90869
C 12.8003 26.2172 33.2274
C 25.9596 13.0579 6.90869
C 25.9596 13.0579 33.2274
C 25.9596 26.2172 6.90869
C 25.9596 26.2172 33.2274
C 11.7564 12.5759 6.0987
C 11.7564 12.5759 32.4174
C 11.7564 25.7352 6.0987
C 11.7564 25.7352 32.4174
C 24.9157 12.5759 6.0987
C 24.9157 12.5759 32.4174
C 24.9157 25.7352 6.0987
C 24.9157 25.7352 32.4174
C 11.9232 12.507 4.71071
C 11.9232 12.507 31.0294
C 11.9232 25.6663 4.71071
C 11.9232 25.6663 31.0294
C 25.0825 12.507 4.71071
C 25.0825 12.507 31.0294
C 25.0825 25.6663 4.71071
C 25.0825 25.6663 31.0294
C 13.0614 13.0478 4.05642
C 13.0614 13.0478 30.3751
C 13.0614 26.2071 4.05642
C 13.0614 26.2071 30.3751
C 26.2207 13.0478 4.05642
C 26.2207 13.0478 30.3751
C 26.2207 26.2071 4.05642
C 26.2207 26.2071 30.3751
C 0.918203 0.366934 4.91396
C 0.918203 0.366934 31.2327
C 0.918203 13.5262 4.91396
C 0.918203 13.5262 31.2327
C 14.0775 0.366934 4.91396
C 14.0775 0.366934 31.2327
C 14.0775 13.5262 4.91396
C 14.0775 13.5262 31.2327
C 0.822956 0.327706 6.32278
C 0.822956 0.327706 32.6415
C 0.822956 13.487 6.32278
C 0.822956 13.487 32.6415
C 13.9823 0.327706 6.32278
C 13.9823 0.327706 32.6415
C 13.9823 13.487 6.32278
C 13.9823 13.487 32.6415
C 1.76958 0.70297 7.28215
C 1.76958 0.70297 33.6008
C 1.76958 13.8623 7.28215
C 1.76958 13.8623 33.6008
C 14.9289 0.70297 7.28215
C 14.9289 0.70297 33.6008
C 14.9289 13.8623 7.28215
C 14.9289 13.8623 33.6008
S 3.41111 1.32413 6.91911
S 3.41111 1.32413 33.2378
S 3.41111 14.4834 6.91911
S 3.41111 14.4834 33.2378
S 16.5704 1.32413 6.91911
S 16.5704 1.32413 33.2378
S 16.5704 14.4834 6.91911
S 16.5704 14.4834 33.2378
H 2.21613 3.40651 8.23449
H 2.21613 3.40651 34.5532
H 2.21613 16.5658 8.23449
H 2.21613 16.5658 34.5532
H 15.3754 3.40651 8.23449
H 15.3754 3.40651 34.5532
H 15.3754 16.5658 8.23449
H 15.3754 16.5658 34.5532
H 3.18097 3.69054 9.70955
H 3.18097 3.69054 36.0282
H 3.18097 16.8498 9.70955
H 3.18097 16.8498 36.0282
H 16.3403 3.69054 9.70955
H 16.3403 3.69054 36.0282
H 16.3403 16.8498 9.70955
H 16.3403 16.8498 36.0282
H 3.91373 3.91373 8.05194
H 3.91373 3.91373 34.3706
H 3.91373 17.073 8.05194
H 3.91373 17.073 34.3706
H 17.073 3.91373 8.05194
H 17.073 3.91373 34.3706
H 17.073 17.073 8.05194
H 17.073 17.073 34.3706
H 4.66872 1.75331 8.9008
H 4.66872 1.75331 35.2195
H 4.66872 14.9126 8.9008
H 4.66872 14.9126 35.2195
H 17.828 1.75331 8.9008
H 17.828 1.75331 35.2195
H 17.828 14.9126 8.9008
H 17.828 14.9126 35.2195
H 3.26738 0.217563 9.8419
H 3.26738 0.217563 36.1606
H 3.26738 13.3769 9.8419
H 3.26738 13.3769 36.1606
H 16.4267 0.217563 9.8419
H 16.4267 0.217563 36.1606
H 16.4267 13.3769 9.8419
H 16.4267 13.3769 36.1606
H 2.35641 1.61257 10.4111
H 2.35641 1.61257 36.7298
H 2.35641 14.7719 10.4111
H 2.35641 14.7719 36.7298
H 15.5157 1.61257 10.4111
H 15.5157 1.61257 36.7298
H 15.5157 14.7719 10.4111
H 15.5157 14.7719 36.7298
H 10.7882 12.2774 6.59126
H 10.7882 12.2774 32.91
H 10.7882 25.4367 6.59126
H 10.7882 25.4367 32.91
H 23.9475 12.2774 6.59126
H 23.9475 12.2774 32.91
H 23.9475 25.4367 6.59126
H 23.9475 25.4367 32.91
H 11.2784 12.0311 3.9827
H 11.2784 12.0311 30.3014
H 11.2784 25.1904 3.9827
H 11.2784 25.1904 30.3014
H 24.4377 12.0311 3.9827
H 24.4377 12.0311 30.3014
H 24.4377 25.1904 3.9827
H 24.4377 25.1904 30.3014
H 1.83763 0.772951 4.46486
H 1.83763 0.772951 30.7836
H 1.83763 13.9323 4.46486
H 1.83763 13.9323 30.7836
H 14.9969 0.772951 4.46486
H 14.9969 0.772951 30.7836
H 14.9969 13.9323 4.46486
H 14.9969 13.9323 30.7836
C 8.49854 8.60421 0.104485
C 8.49854 8.60421 26.4232
C 8.49854 21.7635 0.104485
C 8.49854 21.7635 26.4232
C 21.6578 8.60421 0.104485
C 21.6578 8.60421 26.4232
C 21.6578 21.7635 0.104485
C 21.6578 21.7635 26.4232
C 9.23081 8.59848 25.1098
C 9.23081 8.59848 51.4285
C 9.23081 21.7578 25.1098
C 9.23081 21.7578 51.4285
C 22.3901 8.59848 25.1098
C 22.3901 8.59848 51.4285
C 22.3901 21.7578 25.1098
C 22.3901 21.7578 51.4285
C 10.5191 9.48809 25.2104
C 10.5191 9.48809 51.5291
C 10.5191 22.6474 25.2104
C 10.5191 22.6474 51.5291
C 23.6784 9.48809 25.2104
C 23.6784 9.48809 51.5291
C 23.6784 22.6474 25.2104
C 23.6784 22.6474 51.5291
C 11.6238 8.65836 25.5813
C 11.6238 8.65836 51.9
C 11.6238 21.8177 25.5813
C 11.6238 21.8177 51.9
C 24.7831 8.65836 25.5813
C 24.7831 8.65836 51.9
C 24.7831 21.8177 25.5813
C 24.7831 21.8177 51.9
C 12.8083 9.11485 26.0872
C 12.8083 9.11485 52.4059
C 12.8083 22.2742 26.0872
C 12.8083 22.2742 52.4059
C 25.9676 9.11485 26.0872
C 25.9676 9.11485 52.4059
C 25.9676 22.2742 26.0872
C 25.9676 22.2742 52.4059
N 0.513371 8.23063 0.252502
N 0.513371 8.23063 26.5712
N 0.513371 21.3899 0.252502
N 0.513371 21.3899 26.5712
N 13.6727 8.23063 0.252502
N 13.6727 8.23063 26.5712
N 13.6727 21.3899 0.252502
N 13.6727 21.3899 26.5712
C 0.325561 6.90865 0.182125
C 0.325561 6.90865 26.5008
C 0.325561 20.0679 0.182125
C 0.325561 20.0679 26.5008
C 13.4849 6.90865 0.182125
C 13.4849 6.90865 26.5008
C 13.4849 20.0679 0.182125
C 13.4849 20.0679 26.5008
C 1.40451 6.09866 0.579459
C 1.40451 6.09866 26.8982
C 1.40451 19.258 0.579459
C 1.40451 19.258 26.8982
C 14.5638 6.09866 0.579459
C 14.5638 6.09866 26.8982
C 14.5638 19.258 0.579459
C 14.5638 19.258 26.8982
C 1.33531 4.71069 0.412835
C 1.33531 4.71069 26.7315
C 1.33531 17.87 0.412835
C 1.33531 17.87 26.7315
C 14.4946 4.71069 0.412835
C 14.4946 4.71069 26.7315
C 14.4946 17.87 0.412835
C 14.4946 17.87 26.7315
C 0.148068 4.05642 26.3091
C 0.148068 4.05642 52.6278
C 0.148068 4.05642 -0.00963264
C 0.148068 17.2157 26.3091
C 0.148068 17.2157 52.6278
C 0.148068 17.2157 -0.00963264
C 13.3074 4.05642 26.3091
C 13.3074 4.05642 52.6278
C 13.3074 4.05642 -0.00963264
C 13.3074 17.2157 26.3091
C 13.3074 17.2157 52.6278
C 13.3074 17.2157 -0.00963264
C 12.2506 4.91396 25.9289
C 12.2506 4.91396 52.2476
C 12.2506 18.0733 25.9289
C 12.2506 18.0733 52.2476
C 25.4099 4.91396 25.9289
C 25.4099 4.91396 52.2476
C 25.4099 18.0733 25.9289
C 25.4099 18.0733 52.2476
C 12.3457 6.32274 25.9685
C 12.3457 6.32274 52.2872
C 12.3457 19.482 25.9685
C 12.3457 19.482 52.2872
C 25.505 6.32274 25.9685
C 25.505 6.32274 52.2872
C 25.505 19.482 25.9685
C 25.505 19.482 52.2872
C 11.4109 7.28211 25.5645
C 11.4109 7.28211 51.8832
C 11.4109 20.4414 25.5645
C 11.4109 20.4414 51.8832
C 24.5702 7.28211 25.5645
C 24.5702 7.28211 51.8832
C 24.5702 20.4414 25.5645
C 24.5702 20.4414 51.8832
S 9.81098 6.91908 24.843
S 9.81098 6.91908 51.1617
S 9.81098 20.0784 24.843
S 9.81098 20.0784 51.1617
S 22.9703 6.91908 24.843
S 22.9703 6.91908 51.1617
S 22.9703 20.0784 24.843
S 22.9703 20.0784 51.1617
H 9.18349 8.23446 0.841725
H 9.18349 8.23446 27.1604
H 9.18349 21.3938 0.841725
H 9.18349 21.3938 27.1604
H 22.3428 8.23446 0.841725
H 22.3428 8.23446 27.1604
H 22.3428 21.3938 0.841725
H 22.3428 21.3938 27.1604
H 8.30041 9.70951 0.360329
H 8.30041 9.70951 26.679
H 8.30041 22.8688 0.360329
H 8.30041 22.8688 26.679
H 21.4597 9.70951 0.360329
H 21.4597 9.70951 26.679
H 21.4597 22.8688 0.360329
H 21.4597 22.8688 26.679
H 7.62445 8.05191 0
H 7.62445 8.05191 52.6374
H 7.62445 8.05191 26.3187
H 7.62445 21.2112 0
H 7.62445 21.2112 52.6374
H 7.62445 21.2112 26.3187
H 20.7837 8.05191 0
H 20.7837 8.05191 52.6374
H 20.7837 8.05191 26.3187
H 20.7837 21.2112 0
H 20.7837 21.2112 52.6374
H 20.7837 21.2112 26.3187
H 8.61824 8.90077 24.2572
H 8.61824 8.90077 50.5759
H 8.61824 22.0601 24.2572
H 8.61824 22.0601 50.5759
H 21.7775 8.90077 24.2572
H 21.7775 8.90077 50.5759
H 21.7775 22.0601 24.2572
H 21.7775 22.0601 50.5759
H 10.6951 9.84187 24.1621
H 10.6951 9.84187 50.4808
H 10.6951 23.0012 24.1621
H 10.6951 23.0012 50.4808
H 23.8544 9.84187 24.1621
H 23.8544 9.84187 50.4808
H 23.8544 23.0012 24.1621
H 23.8544 23.0012 50.4808
H 10.3528 10.4111 25.7927
H 10.3528 10.4111 52.1114
H 10.3528 23.5704 25.7927
H 10.3528 23.5704 52.1114
H 23.5121 10.4111 25.7927
H 23.5121 10.4111 52.1114
H 23.5121 23.5704 25.7927
H 23.5121 23.5704 52.1114
H 2.30022 6.59123 1.05304
H 2.30022 6.59123 27.3717
H 2.30022 19.7505 1.05304
H 2.30022 19.7505 27.3717
H 15.4595 6.59123 1.05304
H 15.4595 6.59123 27.3717
H 15.4595 19.7505 1.05304
H 15.4595 19.7505 27.3717
H 2.12779 3.9827 0.532243
H 2.12779 3.9827 26.8509
H 2.12779 17.142 0.532243
H 2.12779 17.142 26.8509
H 15.2871 3.9827 0.532243
H 15.2871 3.9827 26.8509
H 15.2871 17.142 0.532243
H 15.2871 17.142 26.8509
H 11.3133 4.46485 25.5659
H 11.3133 4.46485 51.8846
H 11.3133 17.6241 25.5659
H 11.3133 17.6241 51.8846
H 24.4726 4.46485 25.5659
H 24.4726 4.46485 51.8846
H 24.4726 17.6241 25.5659
H 24.4726 17.6241 51.8846
C 4.55509 8.49854 13.2638
C 4.55509 8.49854 39.5825
C 4.55509 21.6578 13.2638
C 4.55509 21.6578 39.5825
C 17.7144 8.49854 13.2638
C 17.7144 8.49854 39.5825
C 17.7144 21.6578 13.2638
C 17.7144 21.6578 39.5825
C 4.56082 9.23081 11.9505
C 4.56082 9.23081 38.2692
C 4.56082 22.3901 11.9505
C 4.56082 22.3901 38.2692
C 17.7201 9.23081 11.9505
C 17.7201 9.23081 38.2692
C 17.7201 22.3901 11.9505
C 17.7201 22.3901 38.2692
C 3.67121 10.5191 12.0511
C 3.67121 10.5191 38.3698
C 3.67121 23.6784 12.0511
C 3.67121 23.6784 38.3698
C 16.8305 10.5191 12.0511
C 16.8305 10.5191 38.3698
C 16.8305 23.6784 12.0511
C 16.8305 23.6784 38.3698
C 4.50094 11.6238 12.4219
C 4.50094 11.6238 38.7406
C 4.50094 24.7831 12.4219
C 4.50094 24.7831 38.7406
C 17.6602 11.6238 12.4219
C 17.6602 11.6238 38.7406
C 17.6602 24.7831 12.4219
C 17.6602 24.7831 38.7406
C 4.04445 12.8083 12.9279
C 4.04445 12.8083 39.2466
C 4.04445 25.9676 12.9279
C 4.04445 25.9676 39.2466
C 17.2037 12.8083 12.9279
C 17.2037 12.8083 39.2466
C 17.2037 25.9676 12.9279
C 17.2037 25.9676 39.2466
N 4.92867 0.513371 13.4119
N 4.92867 0.513371 39.7306
N 4.92867 13.6727 13.4119
N 4.92867 13.6727 39.7306
N 18.088 0.513371 13.4119
N 18.088 0.513371 39.7306
N 18.088 13.6727 13.4119
N 18.088 13.6727 39.7306
C 6.25065 0.325561 13.3415
C 6.25065 0.325561 39.6602
C 6.25065 13.4849 13.3415
C 6.25065 13.4849 39.6602
C 19.41 0.325561 13.3415
C 19.41 0.325561 39.6602
C 19.41 13.4849 13.3415
C 19.41 13.4849 39.6602
C 7.06064 1.40451 13.7388
C 7.06064 1.40451 40.0575
C 7.06064 14.5638 13.7388
C 7.06064 14.5638 40.0575
C 20.2199 1.40451 13.7388
C 20.2199 1.40451 40.0575
C 20.2199 14.5638 13.7388
C 20.2199 14.5638 40.0575
C 8.44861 1.33531 13.5722
C 8.44861 1.33531 39.8909
C 8.44861 14.4946 13.5722
C 8.44861 14.4946 39.8909
C 21.6079 1.33531 13.5722
C 21.6079 1.33531 39.8909
C 21.6079 14.4946 13.5722
C 21.6079 14.4946 39.8909
C 9.10288 0.148068 13.1497
C 9.10288 0.148068 39.4684
C 9.10288 13.3074 13.1497
C 9.10288 13.3074 39.4684
C 22.2622 0.148068 13.1497
C 22.2622 0.148068 39.4684
C 22.2622 13.3074 13.1497
C 22.2622 13.3074 39.4684
C 8.24534 12.2506 12.7695
C 8.24534 12.2506 39.0882
C 8.24534 25.4099 12.7695
C 8.24534 25.4099 39.0882
C 21.4046 12.2506 12.7695
C 21.4046 12.2506 39.0882
C 21.4046 25.4099 12.7695
C 21.4046 25.4099 39.0882
C 6.83656 12.3457 12.8092
C 6.83656 12.3457 39.1279
C 6.83656 25.505 12.8092
C 6.83656 25.505 39.1279
C 19.9959 12.3457 12.8092
C 19.9959 12.3457 39.1279
C 19.9959 25.505 12.8092
C 19.9959 25.505 39.1279
C 5.87719 11.4109 12.4051
C 5.87719 11.4109 38.7238
C 5.87719 24.5702 12.4051
C 5.87719 24.5702 38.7238
C 19.0365 11.4109 12.4051
C 19.0365 11.4109 38.7238
C 19.0365 24.5702 12.4051
C 19.0365 24.5702 38.7238
S 6.24022 9.81098 11.6836
S 6.24022 9.81098 38.0023
S 6.24022 22.9703 11.6836
S 6.24022 22.9703 38.0023
S 19.3995 9.81098 11.6836
S 19.3995 9.81098 38.0023
S 19.3995 22.9703 11.6836
S 19.3995 22.9703 38.0023
H 4.92484 9.18349 14.0011
H 4.92484 9.18349 40.3198
H 4.92484 22.3428 14.0011
H 4.92484 22.3428 40.3198
H 18.0841 9.18349 14.0011
H 18.0841 9.18349 40.3198
H 18.0841 22.3428 14.0011
H 18.0841 22.3428 40.3198
H 3.44979 8.30041 13.5197
H 3.44979 8.30041 39.8384
H 3.44979 21.4597 13.5197
H 3.44979 21.4597 39.8384
H 16.6091 8.30041 13.5197
H 16.6091 8.30041 39.8384
H 16.6091 21.4597 13.5197
H 16.6091 21.4597 39.8384
H 5.10739 7.62445 13.1593
H 5.10739 7.62445 39.478
H 5.10739 20.7837 13.1593
H 5.10739 20.7837 39.478
H 18.2667 7.62445 13.1593
H 18.2667 7.62445 39.478
H 18.2667 20.7837 13.1593
H 18.2667 20.7837 39.478
H 4.25853 8.61824 11.0978
H 4.25853 8.61824 37.4165
H 4.25853 21.7775 11.0978
H 4.25853 21.7775 37.4165
H 17.4178 8.61824 11.0978
H 17.4178 8.61824 37.4165
H 17.4178 21.7775 11.0978
H 17.4178 21.7775 37.4165
H 3.31743 10.6951 11.0028
H 3.31743 10.6951 37.3215
H 3.31743 23.8544 11.0028
H 3.31743 23.8544 37.3215
H 16.4767 10.6951 11.0028
H 16.4767 10.6951 37.3215
H 16.4767 23.8544 11.0028
H 16.4767 23.8544 37.3215
H 2.74823 10.3528 12.6334
H 2.74823 10.3528 38.9521
H 2.74823 23.5121 12.6334
H 2.74823 23.5121 38.9521
H 15.9075 10.3528 12.6334
H 15.9075 10.3528 38.9521
H 15.9075 23.5121 12.6334
H 15.9075 23.5121 38.9521
H 6.56807 2.30022 14.2124
H 6.56807 2.30022 40.5311
H 6.56807 15.4595 14.2124
H 6.56807 15.4595 40.5311
H 19.7274 2.30022 14.2124
H 19.7274 2.30022 40.5311
H 19.7274 15.4595 14.2124
H 19.7274 15.4595 40.5311
H 9.1766 2.12779 13.6916
H 9.1766 2.12779 40.0103
H 9.1766 15.2871 13.6916
H 9.1766 15.2871 40.0103
H 22.3359 2.12779 13.6916
H 22.3359 2.12779 40.0103
H 22.3359 15.2871 13.6916
H 22.3359 15.2871 40.0103
H 8.69445 11.3133 12.4065
H 8.69445 11.3133 38.7252
H 8.69445 24.4726 12.4065
H 8.69445 24.4726 38.7252
H 21.8538 11.3133 12.4065
H 21.8538 11.3133 38.7252
H 21.8538 24.4726 12.4065
H 21.8538 24.4726 38.7252
